28
-78.62159981
B       7.67726222     9.18246714    11.18751773
B      12.43967673    10.15040163    10.16768874
B      12.05483911    11.28126498     9.01886602
B      12.62865913     8.45354872     9.64466785
B       9.27176348    11.31451565     8.13270892
B      12.55250569     8.81778574    11.22100538
B      11.50423536    10.11239599    11.65585021
B      10.01148220     9.73673887    12.43740003
B       9.08032683    12.60466027     9.14056650
B      12.25019339     8.14523863     8.11411537
B       8.28716460     8.60056890     9.69521059
B      11.27821512    11.35277006    10.50550271
B      10.93296227     8.95268385     7.59538599
B      10.85949805     7.64349328     8.79287416
B       9.68567730    12.06712381    10.55162372
B       8.35755859     9.89375723     8.50620809
B       9.59028731     9.88501289     7.39843726
B       8.03339724    11.41176834     9.38895001
B       9.42355313     8.56507868     8.42231282
B       8.52295716     8.83638078    12.48519829
B      10.62770200    12.10184803     9.04670714
B       9.50494362     7.41458957     9.64717005
B       7.33901657    10.02764263     9.86369617
B       9.86996204     8.02557592    12.58813427
B       8.95234138     7.88082432    11.11647551
B      10.24085421    11.23805228    11.82504677
B      12.29591072     9.74930013     8.49069765
B      11.33913700     8.50468482    12.22652289