28
-78.62159981
B       7.67726222     9.18246714    11.18751773
B      12.43967673    10.15040163    10.16768874
B      12.05483911    11.28126498     9.01886602
B      12.62865913     8.45354872     9.64466785
B       9.27176348    11.31451565     8.13270892
B      12.55250569     8.81778574    11.22100538
B      11.50423536    10.11239599    11.65585021
B      10.01148220     9.73673887    12.43740003
B       9.08032683    12.60466027     9.14056650
B      12.25019339     8.14523863     8.11411537
B       8.28716460     8.60056890     9.69521059
B      11.27821512    11.35277006    10.50550271
B      10.93296227     8.95268385     7.59538599
B      10.85949805     7.64349328     8.79287416
B       9.68567730    12.06712381    10.55162372
B       8.35755859     9.89375723     8.50620809
B       9.59028731     9.88501289     7.39843726
B       8.03339724    11.41176834     9.38895001
B       9.42355313     8.56507868     8.42231282
B       8.52295716     8.83638078    12.48519829
B      10.62770200    12.10184803     9.04670714
B       9.50494362     7.41458957     9.64717005
B       7.33901657    10.02764263     9.86369617
B       9.86996204     8.02557592    12.58813427
B       8.95234138     7.88082432    11.11647551
B      10.24085421    11.23805228    11.82504677
B      12.29591072     9.74930013     8.49069765
B      11.33913700     8.50468482    12.22652289
28
-78.51063520
B       7.25157122     9.67685560    11.15072985
B      12.06705246    10.65007390    11.12625374
B      12.30173719    10.94571852     9.52123489
B      12.45221685     9.13628315    10.34827833
B       9.38691172    11.53174997     7.93559143
B      11.91390298     9.19560421    11.88852837
B      10.80214625    10.46422469    12.18823975
B       9.30053352     9.98602153    12.87177170
B       9.40326733    12.17421646     9.51498902
B      11.47187188     9.20674055     7.34145837
B       8.07570810     9.15684355     9.62168843
B      10.81263061    11.47727908     8.81374335
B       9.92397105     9.11865258     7.10575050
B      10.59505332     8.51801989     8.67160292
B       9.43073798    12.46203175    11.08946047
B       6.96772963    10.48202910     9.79208504
B      10.62345065    10.75428995     7.23783755
B       8.07469689    11.12531485     8.86948736
B       8.92354332     8.66178257     8.25009173
B       7.76591329     9.03414789    12.54252146
B      12.15388344    10.67441717     7.97099995
B       9.41752550     8.11147998     9.74041253
B       8.24731152    11.30842122    10.58914834
B       9.10380196     8.26904378    12.81405287
B       8.68368714     8.44159455    11.14988533
B       9.22791585    11.46466548    12.21790505
B      12.28552303     9.18439763     8.80404445
B      10.61232352     8.83983465    12.73347654